&time_control
    run_days = 1
    run_hours = 0
    run_minutes = 0
    run_seconds = 0
    start_year = 2021, 2021, 2021
    start_month = 6, 6, 6
    start_day = 9, 9, 9
    start_hour = 0, 0, 0
    start_minute = 0, 0, 0
    start_second = 0, 0, 0
    end_year = 2021, 2021, 2021
    end_month = 6, 6, 6
    end_day = 10, 10, 10
    end_hour = 0, 0, 0
    end_minute = 0, 0, 0
    end_second = 0, 0, 0
    interval_seconds = 10800
    input_from_file = .true., .true., .true.
    history_interval = 30, 30, 15
    frames_per_outfile = 1, 1, 1
    restart = .false.
    restart_interval = 180
    io_form_history = 2
    io_form_restart = 2
    io_form_input = 2
    io_form_boundary = 2
    debug_level = 0
/

&domains
    time_step = 8
    max_dom = 3
    s_we = 1, 1, 1
    e_we = 97, 97, 121
    s_sn = 1, 1, 1
    e_sn = 97, 97, 121
    s_vert = 1, 1, 1
    e_vert = 41, 41, 41
    num_metgrid_levels = 43
    num_metgrid_soil_levels = 4
    dx = 2250, 750.0, 250.0
    dy = 2250, 750.0, 250.0
    grid_id = 1, 2, 3
    parent_id = 1, 1, 2
    i_parent_start = 1, 33, 29
    j_parent_start = 1, 33, 29
    parent_grid_ratio = 1, 3, 3
    parent_time_step_ratio = 1, 4, 4
    feedback = 1
    smooth_option = 0
    sr_x = 0, 0, 10
    sr_y = 0, 0, 10
    sfcp_to_sfcp = .true.
    p_top_requested = 5000
/

&physics
    mp_physics = 8, 8, 8, 8, 8
    ra_lw_physics = 4, 4, 4, 4, 4
    ra_sw_physics = 4, 4, 4, 4, 4
    radt = 15, 15, 15, 15, 15
    sf_sfclay_physics = 5, 5, 5, 5, 5
    sf_surface_physics = 3, 3, 3, 3, 3
    bl_pbl_physics = 5, 5, 5, 5, 5
    bldt = 0, 0, 0, 0, 0
    cu_physics = 1, 0, 0, 0, 0
    cudt = 5, 0, 0, 0, 0
    isfflx = 1
    ifsnow = 1
    icloud = 1
    surface_input_source = 1
    num_soil_layers = 6
    maxiens = 1
    maxens = 3
    maxens2 = 3
    maxens3 = 16
    ensdim = 144
/

&fdda
/

&dynamics
    rk_ord = 3
    w_damping = 1
    diff_opt = 1
    km_opt = 4
    damp_opt = 3
    base_temp = 290.0
    zdamp = 5000.0, 5000.0, 5000.0, 5000.0, 5000.0
    dampcoef = 0.2, 0.2, 0.2, 0.2, 0.2
    khdif = 0, 0
    kvdif = 0, 0
    smdiv = 0.1, 0.1, 0.1, 0.1, 0.1
    emdiv = 0.01, 0.01, 0.01, 0.01, 0.01
    epssm = 0.1, 0.1, 0.1, 0.1, 0.1
    time_step_sound = 4, 4, 4, 4, 4
    h_mom_adv_order = 5, 5, 5, 5, 5
    v_mom_adv_order = 5, 5, 5, 5, 5
    h_sca_adv_order = 5, 5, 5, 5, 5
    v_sca_adv_order = 5, 5, 5, 5, 5
    non_hydrostatic = .true., .true., .true., .true., .true.
    tracer_opt = 2, 2, 2
/

&fire
    ifire = 0, 0, 1
    fire_fuel_read = 0, 0, -1
    fire_fuel_cat = 1, 1, 1
    fire_print_msg = 0, 0
    fire_print_file = 0, 0
    fmoist_run = .false., .false., .true.
    fmoist_interp = .false., .false., .true.
    fire_fmc_read = 0, 0, 0
    fmoist_freq = 0, 0
    fmoist_dt = 600, 600, 600
    fire_num_ignitions = 0, 0, 4
    fire_ignition_start_lon1 = 0, 0, -117.376
    fire_ignition_start_lat1 = 0, 0, 33.3216
    fire_ignition_end_lon1 = 0, 0, -117.376
    fire_ignition_end_lat1 = 0, 0, 33.3216
    fire_ignition_radius1 = 0, 0, 200
    fire_ignition_ros1 = 0, 0, 1
    fire_ignition_start_time1 = 0, 0, 57600
    fire_ignition_end_time1 = 0, 0, 57840
    fire_ignition_start_lon2 = 0, 0, -117.376
    fire_ignition_start_lat2 = 0, 0, 33.3305
    fire_ignition_end_lon2 = 0, 0, -117.376
    fire_ignition_end_lat2 = 0, 0, 33.3305
    fire_ignition_radius2 = 0, 0, 200
    fire_ignition_start_time2 = 0, 0, 57600
    fire_ignition_end_time2 = 0, 0, 57840
    fire_ignition_start_lon3 = 0, 0, -117.4088
    fire_ignition_start_lat3 = 0, 0, 33.4388
    fire_ignition_end_lon3 = 0, 0, -117.4088
    fire_ignition_end_lat3 = 0, 0, 33.4388
    fire_ignition_radius3 = 0, 0, 200
    fire_ignition_start_time3 = 0, 0, 57600
    fire_ignition_end_time3 = 0, 0, 57840
    fire_ignition_start_lon4 = 0, 0, -117.365
    fire_ignition_start_lat4 = 0, 0, 33.2584
    fire_ignition_end_lon4 = 0, 0, -117.365
    fire_ignition_end_lat4 = 0, 0, 33.2584
    fire_ignition_radius4 = 0, 0, 200
    fire_ignition_start_time4 = 0, 0, 57600
    fire_ignition_end_time4 = 0, 0, 57840
    fire_ignition_start_lon5 = 0, 0
    fire_ignition_start_lat5 = 0, 0
    fire_ignition_end_lon5 = 0, 0
    fire_ignition_end_lat5 = 0, 0
    fire_ignition_radius5 = 0, 0
    fire_ignition_start_time5 = 0, 0
    fire_ignition_end_time5 = 0, 0
    fire_viscosity = 0, 0, 0
    fire_boundary_guard = 0, 0
    fire_ignition_ros2 = 0, 0, 1
    fire_ignition_ros3 = 0, 0, 1
    fire_ignition_ros4 = 0, 0, 1
/

&bdy_control
    spec_bdy_width = 5
    spec_zone = 1
    relax_zone = 4
    specified = .true., .false., .false.
    periodic_x = .false., .false.
    symmetric_xs = .false., .false.
    symmetric_xe = .false., .false.
    open_xs = .false., .false.
    open_xe = .false., .false.
    periodic_y = .false., .false.
    symmetric_ys = .false., .false.
    symmetric_ye = .false., .false.
    open_ys = .false., .false.
    open_ye = .false., .false.
    nested = .false., .true., .true.
/

&grib2
/

&namelist_quilt
    nio_tasks_per_group = 0
    nio_groups = 1
/
